680
(20,20) SWNT-XMOL XYZ FORMAT
C        -10.000000        0.000000      -13.750987  
C        -10.000000        1.437370      -13.675658  
C         -8.752923        2.151128      -13.581690  
C         -8.752923        3.559017      -13.282434  
C        -10.000000        4.249289      -13.077966  
C        -10.000000        5.593030      -12.562152  
C         -8.752923        6.242817      -12.252219  
C         -8.752923        7.489324      -11.532548  
C        -10.000000        8.082627      -11.124782  
C        -10.000000        9.201206      -10.218975  
C         -8.752923        9.723416       -9.723416  
C         -8.752923       10.686524       -8.653777  
C        -10.000000       11.124782       -8.082627  
C        -10.000000       11.908704       -6.875494  
C         -8.752923       12.252219       -6.242817  
C         -8.752923       12.837652       -4.927913  
C        -10.000000       13.077966       -4.249289  
C        -10.000000       13.450495       -2.858991  
C         -8.752923       13.581690       -2.151128  
C         -8.752923       13.732142       -0.719671  
C        -10.000000       13.750987        0.000000  
C        -10.000000       13.675658        1.437370  
C         -8.752923       13.581690        2.151128  
C         -8.752923       13.282434        3.559017  
C        -10.000000       13.077966        4.249289  
C        -10.000000       12.562152        5.593030  
C         -8.752923       12.252219        6.242817  
C         -8.752923       11.532548        7.489324  
C        -10.000000       11.124782        8.082627  
C        -10.000000       10.218975        9.201206  
C         -8.752923        9.723416        9.723416  
C         -8.752923        8.653777       10.686524  
C        -10.000000        8.082627       11.124782  
C        -10.000000        6.875494       11.908704  
C         -8.752923        6.242817       12.252219  
C         -8.752923        4.927913       12.837652  
C        -10.000000        4.249289       13.077966  
C        -10.000000        2.858991       13.450495  
C         -8.752923        2.151128       13.581690  
C         -8.752923        0.719671       13.732142  
C        -10.000000        0.000000       13.750987  
C        -10.000000       -1.437370       13.675658  
C         -8.752923       -2.151128       13.581690  
C         -8.752923       -3.559017       13.282434  
C        -10.000000       -4.249289       13.077966  
C        -10.000000       -5.593030       12.562152  
C         -8.752923       -6.242817       12.252219  
C         -8.752923       -7.489324       11.532548  
C        -10.000000       -8.082627       11.124782  
C        -10.000000       -9.201206       10.218975  
C         -8.752923       -9.723416        9.723416  
C         -8.752923      -10.686524        8.653777  
C        -10.000000      -11.124782        8.082627  
C        -10.000000      -11.908704        6.875494  
C         -8.752923      -12.252219        6.242817  
C         -8.752923      -12.837652        4.927913  
C        -10.000000      -13.077966        4.249289  
C        -10.000000      -13.450495        2.858991  
C         -8.752923      -13.581690        2.151128  
C         -8.752923      -13.732142        0.719671  
C        -10.000000      -13.750987       -0.000000  
C        -10.000000      -13.675658       -1.437370  
C         -8.752923      -13.581690       -2.151128  
C         -8.752923      -13.282434       -3.559017  
C        -10.000000      -13.077966       -4.249289  
C        -10.000000      -12.562152       -5.593030  
C         -8.752923      -12.252219       -6.242817  
C         -8.752923      -11.532548       -7.489324  
C        -10.000000      -11.124782       -8.082627  
C        -10.000000      -10.218975       -9.201206  
C         -8.752923       -9.723416       -9.723416  
C         -8.752923       -8.653777      -10.686524  
C        -10.000000       -8.082627      -11.124782  
C        -10.000000       -6.875494      -11.908704  
C         -8.752923       -6.242817      -12.252219  
C         -8.752923       -4.927913      -12.837652  
C        -10.000000       -4.249289      -13.077966  
C        -10.000000       -2.858991      -13.450495  
C         -8.752923       -2.151128      -13.581690  
C         -8.752923       -0.719671      -13.732142  
C         -7.505847        0.000000      -13.750987  
C         -7.505847        1.437370      -13.675658  
C         -6.258770        2.151128      -13.581690  
C         -6.258770        3.559017      -13.282434  
C         -7.505847        4.249289      -13.077966  
C         -7.505847        5.593030      -12.562152  
C         -6.258770        6.242817      -12.252219  
C         -6.258770        7.489324      -11.532548  
C         -7.505847        8.082627      -11.124782  
C         -7.505847        9.201206      -10.218975  
C         -6.258770        9.723416       -9.723416  
C         -6.258770       10.686524       -8.653777  
C         -7.505847       11.124782       -8.082627  
C         -7.505847       11.908704       -6.875494  
C         -6.258770       12.252219       -6.242817  
C         -6.258770       12.837652       -4.927913  
C         -7.505847       13.077966       -4.249289  
C         -7.505847       13.450495       -2.858991  
C         -6.258770       13.581690       -2.151128  
C         -6.258770       13.732142       -0.719671  
C         -7.505847       13.750987        0.000000  
C         -7.505847       13.675658        1.437370  
C         -6.258770       13.581690        2.151128  
C         -6.258770       13.282434        3.559017  
C         -7.505847       13.077966        4.249289  
C         -7.505847       12.562152        5.593030  
C         -6.258770       12.252219        6.242817  
C         -6.258770       11.532548        7.489324  
C         -7.505847       11.124782        8.082627  
C         -7.505847       10.218975        9.201206  
C         -6.258770        9.723416        9.723416  
C         -6.258770        8.653777       10.686524  
C         -7.505847        8.082627       11.124782  
C         -7.505847        6.875494       11.908704  
C         -6.258770        6.242817       12.252219  
C         -6.258770        4.927913       12.837652  
C         -7.505847        4.249289       13.077966  
C         -7.505847        2.858991       13.450495  
C         -6.258770        2.151128       13.581690  
C         -6.258770        0.719671       13.732142  
C         -7.505847        0.000000       13.750987  
C         -7.505847       -1.437370       13.675658  
C         -6.258770       -2.151128       13.581690  
C         -6.258770       -3.559017       13.282434  
C         -7.505847       -4.249289       13.077966  
C         -7.505847       -5.593030       12.562152  
C         -6.258770       -6.242817       12.252219  
C         -6.258770       -7.489324       11.532548  
C         -7.505847       -8.082627       11.124782  
C         -7.505847       -9.201206       10.218975  
C         -6.258770       -9.723416        9.723416  
C         -6.258770      -10.686524        8.653777  
C         -7.505847      -11.124782        8.082627  
C         -7.505847      -11.908704        6.875494  
C         -6.258770      -12.252219        6.242817  
C         -6.258770      -12.837652        4.927913  
C         -7.505847      -13.077966        4.249289  
C         -7.505847      -13.450495        2.858991  
C         -6.258770      -13.581690        2.151128  
C         -6.258770      -13.732142        0.719671  
C         -7.505847      -13.750987       -0.000000  
C         -7.505847      -13.675658       -1.437370  
C         -6.258770      -13.581690       -2.151128  
C         -6.258770      -13.282434       -3.559017  
C         -7.505847      -13.077966       -4.249289  
C         -7.505847      -12.562152       -5.593030  
C         -6.258770      -12.252219       -6.242817  
C         -6.258770      -11.532548       -7.489324  
C         -7.505847      -11.124782       -8.082627  
C         -7.505847      -10.218975       -9.201206  
C         -6.258770       -9.723416       -9.723416  
C         -6.258770       -8.653777      -10.686524  
C         -7.505847       -8.082627      -11.124782  
C         -7.505847       -6.875494      -11.908704  
C         -6.258770       -6.242817      -12.252219  
C         -6.258770       -4.927913      -12.837652  
C         -7.505847       -4.249289      -13.077966  
C         -7.505847       -2.858991      -13.450495  
C         -6.258770       -2.151128      -13.581690  
C         -6.258770       -0.719671      -13.732142  
C         -5.011694        0.000000      -13.750987  
C         -5.011694        1.437370      -13.675658  
C         -3.764617        2.151128      -13.581690  
C         -3.764617        3.559017      -13.282434  
C         -5.011694        4.249289      -13.077966  
C         -5.011694        5.593030      -12.562152  
C         -3.764617        6.242817      -12.252219  
C         -3.764617        7.489324      -11.532548  
C         -5.011694        8.082627      -11.124782  
C         -5.011694        9.201206      -10.218975  
C         -3.764617        9.723416       -9.723416  
C         -3.764617       10.686524       -8.653777  
C         -5.011694       11.124782       -8.082627  
C         -5.011694       11.908704       -6.875494  
C         -3.764617       12.252219       -6.242817  
C         -3.764617       12.837652       -4.927913  
C         -5.011694       13.077966       -4.249289  
C         -5.011694       13.450495       -2.858991  
C         -3.764617       13.581690       -2.151128  
C         -3.764617       13.732142       -0.719671  
C         -5.011694       13.750987        0.000000  
C         -5.011694       13.675658        1.437370  
C         -3.764617       13.581690        2.151128  
C         -3.764617       13.282434        3.559017  
C         -5.011694       13.077966        4.249289  
C         -5.011694       12.562152        5.593030  
C         -3.764617       12.252219        6.242817  
C         -3.764617       11.532548        7.489324  
C         -5.011694       11.124782        8.082627  
C         -5.011694       10.218975        9.201206  
C         -3.764617        9.723416        9.723416  
C         -3.764617        8.653777       10.686524  
C         -5.011694        8.082627       11.124782  
C         -5.011694        6.875494       11.908704  
C         -3.764617        6.242817       12.252219  
C         -3.764617        4.927913       12.837652  
C         -5.011694        4.249289       13.077966  
C         -5.011694        2.858991       13.450495  
C         -3.764617        2.151128       13.581690  
C         -3.764617        0.719671       13.732142  
C         -5.011694        0.000000       13.750987  
C         -5.011694       -1.437370       13.675658  
C         -3.764617       -2.151128       13.581690  
C         -3.764617       -3.559017       13.282434  
C         -5.011694       -4.249289       13.077966  
C         -5.011694       -5.593030       12.562152  
C         -3.764617       -6.242817       12.252219  
C         -3.764617       -7.489324       11.532548  
C         -5.011694       -8.082627       11.124782  
C         -5.011694       -9.201206       10.218975  
C         -3.764617       -9.723416        9.723416  
C         -3.764617      -10.686524        8.653777  
C         -5.011694      -11.124782        8.082627  
C         -5.011694      -11.908704        6.875494  
C         -3.764617      -12.252219        6.242817  
C         -3.764617      -12.837652        4.927913  
C         -5.011694      -13.077966        4.249289  
C         -5.011694      -13.450495        2.858991  
C         -3.764617      -13.581690        2.151128  
C         -3.764617      -13.732142        0.719671  
C         -5.011694      -13.750987        0.000000  
C         -5.011694      -13.675658       -1.437370  
C         -3.764617      -13.581690       -2.151128  
C         -3.764617      -13.282434       -3.559017  
C         -5.011694      -13.077966       -4.249289  
C         -5.011694      -12.562152       -5.593030  
C         -3.764617      -12.252219       -6.242817  
C         -3.764617      -11.532548       -7.489324  
C         -5.011694      -11.124782       -8.082627  
C         -5.011694      -10.218975       -9.201206  
C         -3.764617       -9.723416       -9.723416  
C         -3.764617       -8.653777      -10.686524  
C         -5.011694       -8.082627      -11.124782  
C         -5.011694       -6.875494      -11.908704  
C         -3.764617       -6.242817      -12.252219  
C         -3.764617       -4.927913      -12.837652  
C         -5.011694       -4.249289      -13.077966  
C         -5.011694       -2.858991      -13.450495  
C         -3.764617       -2.151128      -13.581690  
C         -3.764617       -0.719671      -13.732142  
C         -2.517541        0.000000      -13.750987  
C         -2.517541        1.437370      -13.675658  
C         -1.270464        2.151128      -13.581690  
C         -1.270464        3.559017      -13.282434  
C         -2.517541        4.249289      -13.077966  
C         -2.517541        5.593030      -12.562152  
C         -1.270464        6.242817      -12.252219  
C         -1.270464        7.489324      -11.532548  
C         -2.517541        8.082627      -11.124782  
C         -2.517541        9.201206      -10.218975  
C         -1.270464        9.723416       -9.723416  
C         -1.270464       10.686524       -8.653777  
C         -2.517541       11.124782       -8.082627  
C         -2.517541       11.908704       -6.875494  
C         -1.270464       12.252219       -6.242817  
C         -1.270464       12.837652       -4.927913  
C         -2.517541       13.077966       -4.249289  
C         -2.517541       13.450495       -2.858991  
C         -1.270464       13.581690       -2.151128  
C         -1.270464       13.732142       -0.719671  
C         -2.517541       13.750987        0.000000  
C         -2.517541       13.675658        1.437370  
C         -1.270464       13.581690        2.151128  
C         -1.270464       13.282434        3.559017  
C         -2.517541       13.077966        4.249289  
C         -2.517541       12.562152        5.593030  
C         -1.270464       12.252219        6.242817  
C         -1.270464       11.532548        7.489324  
C         -2.517541       11.124782        8.082627  
C         -2.517541       10.218975        9.201206  
C         -1.270464        9.723416        9.723416  
C         -1.270464        8.653777       10.686524  
C         -2.517541        8.082627       11.124782  
C         -2.517541        6.875494       11.908704  
C         -1.270464        6.242817       12.252219  
C         -1.270464        4.927913       12.837652  
C         -2.517541        4.249289       13.077966  
C         -2.517541        2.858991       13.450495  
C         -1.270464        2.151128       13.581690  
C         -1.270464        0.719671       13.732142  
C         -2.517541        0.000000       13.750987  
C         -2.517541       -1.437370       13.675658  
C         -1.270464       -2.151128       13.581690  
C         -1.270464       -3.559017       13.282434  
C         -2.517541       -4.249289       13.077966  
C         -2.517541       -5.593030       12.562152  
C         -1.270464       -6.242817       12.252219  
C         -1.270464       -7.489324       11.532548  
C         -2.517541       -8.082627       11.124782  
C         -2.517541       -9.201206       10.218975  
C         -1.270464       -9.723416        9.723416  
C         -1.270464      -10.686524        8.653777  
C         -2.517541      -11.124782        8.082627  
C         -2.517541      -11.908704        6.875494  
C         -1.270464      -12.252219        6.242817  
C         -1.270464      -12.837652        4.927913  
C         -2.517541      -13.077966        4.249289  
C         -2.517541      -13.450495        2.858991  
C         -1.270464      -13.581690        2.151128  
C         -1.270464      -13.732142        0.719671  
C         -2.517541      -13.750987       -0.000000  
C         -2.517541      -13.675658       -1.437370  
C         -1.270464      -13.581690       -2.151128  
C         -1.270464      -13.282434       -3.559017  
C         -2.517541      -13.077966       -4.249289  
C         -2.517541      -12.562152       -5.593030  
C         -1.270464      -12.252219       -6.242817  
C         -1.270464      -11.532548       -7.489324  
C         -2.517541      -11.124782       -8.082627  
C         -2.517541      -10.218975       -9.201206  
C         -1.270464       -9.723416       -9.723416  
C         -1.270464       -8.653777      -10.686524  
C         -2.517541       -8.082627      -11.124782  
C         -2.517541       -6.875494      -11.908704  
C         -1.270464       -6.242817      -12.252219  
C         -1.270464       -4.927913      -12.837652  
C         -2.517541       -4.249289      -13.077966  
C         -2.517541       -2.858991      -13.450495  
C         -1.270464       -2.151128      -13.581690  
C         -1.270464       -0.719671      -13.732142  
C         -0.023387        0.000000      -13.750987  
C         -0.023387        1.437370      -13.675658  
C          1.223689        2.151128      -13.581690  
C          1.223689        3.559017      -13.282434  
C         -0.023387        4.249289      -13.077966  
C         -0.023387        5.593030      -12.562152  
C          1.223689        6.242817      -12.252219  
C          1.223689        7.489324      -11.532548  
C         -0.023387        8.082627      -11.124782  
C         -0.023387        9.201206      -10.218975  
C          1.223689        9.723416       -9.723416  
C          1.223689       10.686524       -8.653777  
C         -0.023387       11.124782       -8.082627  
C         -0.023387       11.908704       -6.875494  
C          1.223689       12.252219       -6.242817  
C          1.223689       12.837652       -4.927913  
C         -0.023387       13.077966       -4.249289  
C         -0.023387       13.450495       -2.858991  
C          1.223689       13.581690       -2.151128  
C          1.223689       13.732142       -0.719671  
C         -0.023387       13.750987        0.000000  
C         -0.023387       13.675658        1.437370  
C          1.223689       13.581690        2.151128  
C          1.223689       13.282434        3.559017  
C         -0.023387       13.077966        4.249289  
C         -0.023387       12.562152        5.593030  
C          1.223689       12.252219        6.242817  
C          1.223689       11.532548        7.489324  
C         -0.023387       11.124782        8.082627  
C         -0.023387       10.218975        9.201206  
C          1.223689        9.723416        9.723416  
C          1.223689        8.653777       10.686524  
C         -0.023387        8.082627       11.124782  
C         -0.023387        6.875494       11.908704  
C          1.223689        6.242817       12.252219  
C          1.223689        4.927913       12.837652  
C         -0.023387        4.249289       13.077966  
C         -0.023387        2.858991       13.450495  
C          1.223689        2.151128       13.581690  
C          1.223689        0.719671       13.732142  
C         -0.023387        0.000000       13.750987  
C         -0.023387       -1.437370       13.675658  
C          1.223689       -2.151128       13.581690  
C          1.223689       -3.559017       13.282434  
C         -0.023387       -4.249289       13.077966  
C         -0.023387       -5.593030       12.562152  
C          1.223689       -6.242817       12.252219  
C          1.223689       -7.489324       11.532548  
C         -0.023387       -8.082627       11.124782  
C         -0.023387       -9.201206       10.218975  
C          1.223689       -9.723416        9.723416  
C          1.223689      -10.686524        8.653777  
C         -0.023387      -11.124782        8.082627  
C         -0.023387      -11.908704        6.875494  
C          1.223689      -12.252219        6.242817  
C          1.223689      -12.837652        4.927913  
C         -0.023387      -13.077966        4.249289  
C         -0.023387      -13.450495        2.858991  
C          1.223689      -13.581690        2.151128  
C          1.223689      -13.732142        0.719671  
C         -0.023387      -13.750987       -0.000000  
C         -0.023387      -13.675658       -1.437370  
C          1.223689      -13.581690       -2.151128  
C          1.223689      -13.282434       -3.559017  
C         -0.023387      -13.077966       -4.249289  
C         -0.023387      -12.562152       -5.593030  
C          1.223689      -12.252219       -6.242817  
C          1.223689      -11.532548       -7.489324  
C         -0.023387      -11.124782       -8.082627  
C         -0.023387      -10.218975       -9.201206  
C          1.223689       -9.723416       -9.723416  
C          1.223689       -8.653777      -10.686524  
C         -0.023387       -8.082627      -11.124782  
C         -0.023387       -6.875494      -11.908704  
C          1.223689       -6.242817      -12.252219  
C          1.223689       -4.927913      -12.837652  
C         -0.023387       -4.249289      -13.077966  
C         -0.023387       -2.858991      -13.450495  
C          1.223689       -2.151128      -13.581690  
C          1.223689       -0.719671      -13.732142  
C          2.470766        0.000000      -13.750987  
C          2.470766        1.437370      -13.675658  
C          3.717842        2.151128      -13.581690  
C          3.717842        3.559017      -13.282434  
C          2.470766        4.249289      -13.077966  
C          2.470766        5.593030      -12.562152  
C          3.717842        6.242817      -12.252219  
C          3.717842        7.489324      -11.532548  
C          2.470766        8.082627      -11.124782  
C          2.470766        9.201206      -10.218975  
C          3.717842        9.723416       -9.723416  
C          3.717842       10.686524       -8.653777  
C          2.470766       11.124782       -8.082627  
C          2.470766       11.908704       -6.875494  
C          3.717842       12.252219       -6.242817  
C          3.717842       12.837652       -4.927913  
C          2.470766       13.077966       -4.249289  
C          2.470766       13.450495       -2.858991  
C          3.717842       13.581690       -2.151128  
C          3.717842       13.732142       -0.719671  
C          2.470766       13.750987        0.000000  
C          2.470766       13.675658        1.437370  
C          3.717842       13.581690        2.151128  
C          3.717842       13.282434        3.559017  
C          2.470766       13.077966        4.249289  
C          2.470766       12.562152        5.593030  
C          3.717842       12.252219        6.242817  
C          3.717842       11.532548        7.489324  
C          2.470766       11.124782        8.082627  
C          2.470766       10.218975        9.201206  
C          3.717842        9.723416        9.723416  
C          3.717842        8.653777       10.686524  
C          2.470766        8.082627       11.124782  
C          2.470766        6.875494       11.908704  
C          3.717842        6.242817       12.252219  
C          3.717842        4.927913       12.837652  
C          2.470766        4.249289       13.077966  
C          2.470766        2.858991       13.450495  
C          3.717842        2.151128       13.581690  
C          3.717842        0.719671       13.732142  
C          2.470766        0.000000       13.750987  
C          2.470766       -1.437370       13.675658  
C          3.717842       -2.151128       13.581690  
C          3.717842       -3.559017       13.282434  
C          2.470766       -4.249289       13.077966  
C          2.470766       -5.593030       12.562152  
C          3.717842       -6.242817       12.252219  
C          3.717842       -7.489324       11.532548  
C          2.470766       -8.082627       11.124782  
C          2.470766       -9.201206       10.218975  
C          3.717842       -9.723416        9.723416  
C          3.717842      -10.686524        8.653777  
C          2.470766      -11.124782        8.082627  
C          2.470766      -11.908704        6.875494  
C          3.717842      -12.252219        6.242817  
C          3.717842      -12.837652        4.927913  
C          2.470766      -13.077966        4.249289  
C          2.470766      -13.450495        2.858991  
C          3.717842      -13.581690        2.151128  
C          3.717842      -13.732142        0.719671  
C          2.470766      -13.750987       -0.000000  
C          2.470766      -13.675658       -1.437370  
C          3.717842      -13.581690       -2.151128  
C          3.717842      -13.282434       -3.559017  
C          2.470766      -13.077966       -4.249289  
C          2.470766      -12.562152       -5.593030  
C          3.717842      -12.252219       -6.242817  
C          3.717842      -11.532548       -7.489324  
C          2.470766      -11.124782       -8.082627  
C          2.470766      -10.218975       -9.201206  
C          3.717842       -9.723416       -9.723416  
C          3.717842       -8.653777      -10.686524  
C          2.470766       -8.082627      -11.124782  
C          2.470766       -6.875494      -11.908704  
C          3.717842       -6.242817      -12.252219  
C          3.717842       -4.927913      -12.837652  
C          2.470766       -4.249289      -13.077966  
C          2.470766       -2.858991      -13.450495  
C          3.717842       -2.151128      -13.581690  
C          3.717842       -0.719671      -13.732142  
C          4.964919        0.000000      -13.750987  
C          4.964919        1.437370      -13.675658  
C          6.211996        2.151128      -13.581690  
C          6.211996        3.559017      -13.282434  
C          4.964919        4.249289      -13.077966  
C          4.964919        5.593030      -12.562152  
C          6.211996        6.242817      -12.252219  
C          6.211996        7.489324      -11.532548  
C          4.964919        8.082627      -11.124782  
C          4.964919        9.201206      -10.218975  
C          6.211996        9.723416       -9.723416  
C          6.211996       10.686524       -8.653777  
C          4.964919       11.124782       -8.082627  
C          4.964919       11.908704       -6.875494  
C          6.211996       12.252219       -6.242817  
C          6.211996       12.837652       -4.927913  
C          4.964919       13.077966       -4.249289  
C          4.964919       13.450495       -2.858991  
C          6.211996       13.581690       -2.151128  
C          6.211996       13.732142       -0.719671  
C          4.964919       13.750987        0.000000  
C          4.964919       13.675658        1.437370  
C          6.211996       13.581690        2.151128  
C          6.211996       13.282434        3.559017  
C          4.964919       13.077966        4.249289  
C          4.964919       12.562152        5.593030  
C          6.211996       12.252219        6.242817  
C          6.211996       11.532548        7.489324  
C          4.964919       11.124782        8.082627  
C          4.964919       10.218975        9.201206  
C          6.211996        9.723416        9.723416  
C          6.211996        8.653777       10.686524  
C          4.964919        8.082627       11.124782  
C          4.964919        6.875494       11.908704  
C          6.211996        6.242817       12.252219  
C          6.211996        4.927913       12.837652  
C          4.964919        4.249289       13.077966  
C          4.964919        2.858991       13.450495  
C          6.211996        2.151128       13.581690  
C          6.211996        0.719671       13.732142  
C          4.964919        0.000000       13.750987  
C          4.964919       -1.437370       13.675658  
C          6.211996       -2.151128       13.581690  
C          6.211996       -3.559017       13.282434  
C          4.964919       -4.249289       13.077966  
C          4.964919       -5.593030       12.562152  
C          6.211996       -6.242817       12.252219  
C          6.211996       -7.489324       11.532548  
C          4.964919       -8.082627       11.124782  
C          4.964919       -9.201206       10.218975  
C          6.211996       -9.723416        9.723416  
C          6.211996      -10.686524        8.653777  
C          4.964919      -11.124782        8.082627  
C          4.964919      -11.908704        6.875494  
C          6.211996      -12.252219        6.242817  
C          6.211996      -12.837652        4.927913  
C          4.964919      -13.077966        4.249289  
C          4.964919      -13.450495        2.858991  
C          6.211996      -13.581690        2.151128  
C          6.211996      -13.732142        0.719671  
C          4.964919      -13.750987        0.000000  
C          4.964919      -13.675658       -1.437370  
C          6.211996      -13.581690       -2.151128  
C          6.211996      -13.282434       -3.559017  
C          4.964919      -13.077966       -4.249289  
C          4.964919      -12.562152       -5.593030  
C          6.211996      -12.252219       -6.242817  
C          6.211996      -11.532548       -7.489324  
C          4.964919      -11.124782       -8.082627  
C          4.964919      -10.218975       -9.201206  
C          6.211996       -9.723416       -9.723416  
C          6.211996       -8.653777      -10.686524  
C          4.964919       -8.082627      -11.124782  
C          4.964919       -6.875494      -11.908704  
C          6.211996       -6.242817      -12.252219  
C          6.211996       -4.927913      -12.837652  
C          4.964919       -4.249289      -13.077966  
C          4.964919       -2.858991      -13.450495  
C          6.211996       -2.151128      -13.581690  
C          6.211996       -0.719671      -13.732142  
C          7.459072        0.000000      -13.750987  
C          7.459072        1.437370      -13.675658  
C          8.706149        2.151128      -13.581690  
C          8.706149        3.559017      -13.282434  
C          7.459072        4.249289      -13.077966  
C          7.459072        5.593030      -12.562152  
C          8.706149        6.242817      -12.252219  
C          8.706149        7.489324      -11.532548  
C          7.459072        8.082627      -11.124782  
C          7.459072        9.201206      -10.218975  
C          8.706149        9.723416       -9.723416  
C          8.706149       10.686524       -8.653777  
C          7.459072       11.124782       -8.082627  
C          7.459072       11.908704       -6.875494  
C          8.706149       12.252219       -6.242817  
C          8.706149       12.837652       -4.927913  
C          7.459072       13.077966       -4.249289  
C          7.459072       13.450495       -2.858991  
C          8.706149       13.581690       -2.151128  
C          8.706149       13.732142       -0.719671  
C          7.459072       13.750987        0.000000  
C          7.459072       13.675658        1.437370  
C          8.706149       13.581690        2.151128  
C          8.706149       13.282434        3.559017  
C          7.459072       13.077966        4.249289  
C          7.459072       12.562152        5.593030  
C          8.706149       12.252219        6.242817  
C          8.706149       11.532548        7.489324  
C          7.459072       11.124782        8.082627  
C          7.459072       10.218975        9.201206  
C          8.706149        9.723416        9.723416  
C          8.706149        8.653777       10.686524  
C          7.459072        8.082627       11.124782  
C          7.459072        6.875494       11.908704  
C          8.706149        6.242817       12.252219  
C          8.706149        4.927913       12.837652  
C          7.459072        4.249289       13.077966  
C          7.459072        2.858991       13.450495  
C          8.706149        2.151128       13.581690  
C          8.706149        0.719671       13.732142  
C          7.459072        0.000000       13.750987  
C          7.459072       -1.437370       13.675658  
C          8.706149       -2.151128       13.581690  
C          8.706149       -3.559017       13.282434  
C          7.459072       -4.249289       13.077966  
C          7.459072       -5.593030       12.562152  
C          8.706149       -6.242817       12.252219  
C          8.706149       -7.489324       11.532548  
C          7.459072       -8.082627       11.124782  
C          7.459072       -9.201206       10.218975  
C          8.706149       -9.723416        9.723416  
C          8.706149      -10.686524        8.653777  
C          7.459072      -11.124782        8.082627  
C          7.459072      -11.908704        6.875494  
C          8.706149      -12.252219        6.242817  
C          8.706149      -12.837652        4.927913  
C          7.459072      -13.077966        4.249289  
C          7.459072      -13.450495        2.858991  
C          8.706149      -13.581690        2.151128  
C          8.706149      -13.732142        0.719671  
C          7.459072      -13.750987       -0.000000  
C          7.459072      -13.675658       -1.437370  
C          8.706149      -13.581690       -2.151128  
C          8.706149      -13.282434       -3.559017  
C          7.459072      -13.077966       -4.249289  
C          7.459072      -12.562152       -5.593030  
C          8.706149      -12.252219       -6.242817  
C          8.706149      -11.532548       -7.489324  
C          7.459072      -11.124782       -8.082627  
C          7.459072      -10.218975       -9.201206  
C          8.706149       -9.723416       -9.723416  
C          8.706149       -8.653777      -10.686524  
C          7.459072       -8.082627      -11.124782  
C          7.459072       -6.875494      -11.908704  
C          8.706149       -6.242817      -12.252219  
C          8.706149       -4.927913      -12.837652  
C          7.459072       -4.249289      -13.077966  
C          7.459072       -2.858991      -13.450495  
C          8.706149       -2.151128      -13.581690  
C          8.706149       -0.719671      -13.732142  
C          9.953225        0.000000      -13.750987  
C          9.953225        1.437370      -13.675658  
C          9.953225        4.249289      -13.077966  
C          9.953225        5.593030      -12.562152  
C          9.953225        8.082627      -11.124782  
C          9.953225        9.201206      -10.218975  
C          9.953225       11.124782       -8.082627  
C          9.953225       11.908704       -6.875494  
C          9.953225       13.077966       -4.249289  
C          9.953225       13.450495       -2.858991  
C          9.953225       13.750987        0.000000  
C          9.953225       13.675658        1.437370  
C          9.953225       13.077966        4.249289  
C          9.953225       12.562152        5.593030  
C          9.953225       11.124782        8.082627  
C          9.953225       10.218975        9.201206  
C          9.953225        8.082627       11.124782  
C          9.953225        6.875494       11.908704  
C          9.953225        4.249289       13.077966  
C          9.953225        2.858991       13.450495  
C          9.953225        0.000000       13.750987  
C          9.953225       -1.437370       13.675658  
C          9.953225       -4.249289       13.077966  
C          9.953225       -5.593030       12.562152  
C          9.953225       -8.082627       11.124782  
C          9.953225       -9.201206       10.218975  
C          9.953225      -11.124782        8.082627  
C          9.953225      -11.908704        6.875494  
C          9.953225      -13.077966        4.249289  
C          9.953225      -13.450495        2.858991  
C          9.953225      -13.750987       -0.000000  
C          9.953225      -13.675658       -1.437370  
C          9.953225      -13.077966       -4.249289  
C          9.953225      -12.562152       -5.593030  
C          9.953225      -11.124782       -8.082627  
C          9.953225      -10.218975       -9.201206  
C          9.953225       -8.082627      -11.124782  
C          9.953225       -6.875494      -11.908704  
C          9.953225       -4.249289      -13.077966  
C          9.953225       -2.858991      -13.450495  
