170
(5,5) SWNT-XMOL XYZ FORMAT
C        -10.000000        0.000000       -3.437747  
C        -10.000000        1.398258       -3.140538  
C         -8.752923        2.020657       -2.781196  
C         -8.752923        2.977176       -1.718873  
C        -10.000000        3.269491       -1.062322  
C        -10.000000        3.418914        0.359342  
C         -8.752923        3.269491        1.062322  
C         -8.752923        2.554744        2.300302  
C        -10.000000        2.020657        2.781196  
C        -10.000000        0.714748        3.362624  
C         -8.752923        0.000000        3.437747  
C         -8.752923       -1.398258        3.140538  
C        -10.000000       -2.020657        2.781196  
C        -10.000000       -2.977176        1.718873  
C         -8.752923       -3.269491        1.062322  
C         -8.752923       -3.418914       -0.359342  
C        -10.000000       -3.269491       -1.062322  
C        -10.000000       -2.554744       -2.300302  
C         -8.752923       -2.020657       -2.781196  
C         -8.752923       -0.714748       -3.362624  
C         -7.505847        0.000000       -3.437747  
C         -7.505847        1.398258       -3.140538  
C         -6.258770        2.020657       -2.781196  
C         -6.258770        2.977176       -1.718873  
C         -7.505847        3.269491       -1.062322  
C         -7.505847        3.418914        0.359342  
C         -6.258770        3.269491        1.062322  
C         -6.258770        2.554744        2.300302  
C         -7.505847        2.020657        2.781196  
C         -7.505847        0.714748        3.362624  
C         -6.258770        0.000000        3.437747  
C         -6.258770       -1.398258        3.140538  
C         -7.505847       -2.020657        2.781196  
C         -7.505847       -2.977176        1.718873  
C         -6.258770       -3.269491        1.062322  
C         -6.258770       -3.418914       -0.359342  
C         -7.505847       -3.269491       -1.062322  
C         -7.505847       -2.554744       -2.300302  
C         -6.258770       -2.020657       -2.781196  
C         -6.258770       -0.714748       -3.362624  
C         -5.011694        0.000000       -3.437747  
C         -5.011694        1.398258       -3.140538  
C         -3.764617        2.020657       -2.781196  
C         -3.764617        2.977176       -1.718873  
C         -5.011694        3.269491       -1.062322  
C         -5.011694        3.418914        0.359342  
C         -3.764617        3.269491        1.062322  
C         -3.764617        2.554744        2.300302  
C         -5.011694        2.020657        2.781196  
C         -5.011694        0.714748        3.362624  
C         -3.764617        0.000000        3.437747  
C         -3.764617       -1.398258        3.140538  
C         -5.011694       -2.020657        2.781196  
C         -5.011694       -2.977176        1.718873  
C         -3.764617       -3.269491        1.062322  
C         -3.764617       -3.418914       -0.359342  
C         -5.011694       -3.269491       -1.062322  
C         -5.011694       -2.554744       -2.300302  
C         -3.764617       -2.020657       -2.781196  
C         -3.764617       -0.714748       -3.362624  
C         -2.517541        0.000000       -3.437747  
C         -2.517541        1.398258       -3.140538  
C         -1.270464        2.020657       -2.781196  
C         -1.270464        2.977176       -1.718873  
C         -2.517541        3.269491       -1.062322  
C         -2.517541        3.418914        0.359342  
C         -1.270464        3.269491        1.062322  
C         -1.270464        2.554744        2.300302  
C         -2.517541        2.020657        2.781196  
C         -2.517541        0.714748        3.362624  
C         -1.270464        0.000000        3.437747  
C         -1.270464       -1.398258        3.140538  
C         -2.517541       -2.020657        2.781196  
C         -2.517541       -2.977176        1.718873  
C         -1.270464       -3.269491        1.062322  
C         -1.270464       -3.418914       -0.359342  
C         -2.517541       -3.269491       -1.062322  
C         -2.517541       -2.554744       -2.300302  
C         -1.270464       -2.020657       -2.781196  
C         -1.270464       -0.714748       -3.362624  
C         -0.023387        0.000000       -3.437747  
C         -0.023387        1.398258       -3.140538  
C          1.223689        2.020657       -2.781196  
C          1.223689        2.977176       -1.718873  
C         -0.023387        3.269491       -1.062322  
C         -0.023387        3.418914        0.359342  
C          1.223689        3.269491        1.062322  
C          1.223689        2.554744        2.300302  
C         -0.023387        2.020657        2.781196  
C         -0.023387        0.714748        3.362624  
C          1.223689        0.000000        3.437747  
C          1.223689       -1.398258        3.140538  
C         -0.023387       -2.020657        2.781196  
C         -0.023387       -2.977176        1.718873  
C          1.223689       -3.269491        1.062322  
C          1.223689       -3.418914       -0.359342  
C         -0.023387       -3.269491       -1.062322  
C         -0.023387       -2.554744       -2.300302  
C          1.223689       -2.020657       -2.781196  
C          1.223689       -0.714748       -3.362624  
C          2.470766        0.000000       -3.437747  
C          2.470766        1.398258       -3.140538  
C          3.717842        2.020657       -2.781196  
C          3.717842        2.977176       -1.718873  
C          2.470766        3.269491       -1.062322  
C          2.470766        3.418914        0.359342  
C          3.717842        3.269491        1.062322  
C          3.717842        2.554744        2.300302  
C          2.470766        2.020657        2.781196  
C          2.470766        0.714748        3.362624  
C          3.717842        0.000000        3.437747  
C          3.717842       -1.398258        3.140538  
C          2.470766       -2.020657        2.781196  
C          2.470766       -2.977176        1.718873  
C          3.717842       -3.269491        1.062322  
C          3.717842       -3.418914       -0.359342  
C          2.470766       -3.269491       -1.062322  
C          2.470766       -2.554744       -2.300302  
C          3.717842       -2.020657       -2.781196  
C          3.717842       -0.714748       -3.362624  
C          4.964919        0.000000       -3.437747  
C          4.964919        1.398258       -3.140538  
C          6.211996        2.020657       -2.781196  
C          6.211996        2.977176       -1.718873  
C          4.964919        3.269491       -1.062322  
C          4.964919        3.418914        0.359342  
C          6.211996        3.269491        1.062322  
C          6.211996        2.554744        2.300302  
C          4.964919        2.020657        2.781196  
C          4.964919        0.714748        3.362624  
C          6.211996        0.000000        3.437747  
C          6.211996       -1.398258        3.140538  
C          4.964919       -2.020657        2.781196  
C          4.964919       -2.977176        1.718873  
C          6.211996       -3.269491        1.062322  
C          6.211996       -3.418914       -0.359342  
C          4.964919       -3.269491       -1.062322  
C          4.964919       -2.554744       -2.300302  
C          6.211996       -2.020657       -2.781196  
C          6.211996       -0.714748       -3.362624  
C          7.459072        0.000000       -3.437747  
C          7.459072        1.398258       -3.140538  
C          8.706149        2.020657       -2.781196  
C          8.706149        2.977176       -1.718873  
C          7.459072        3.269491       -1.062322  
C          7.459072        3.418914        0.359342  
C          8.706149        3.269491        1.062322  
C          8.706149        2.554744        2.300302  
C          7.459072        2.020657        2.781196  
C          7.459072        0.714748        3.362624  
C          8.706149        0.000000        3.437747  
C          8.706149       -1.398258        3.140538  
C          7.459072       -2.020657        2.781196  
C          7.459072       -2.977176        1.718873  
C          8.706149       -3.269491        1.062322  
C          8.706149       -3.418914       -0.359342  
C          7.459072       -3.269491       -1.062322  
C          7.459072       -2.554744       -2.300302  
C          8.706149       -2.020657       -2.781196  
C          8.706149       -0.714748       -3.362624  
C          9.953225        0.000000       -3.437747  
C          9.953225        1.398258       -3.140538  
C          9.953225        3.269491       -1.062322  
C          9.953225        3.418914        0.359342  
C          9.953225        2.020657        2.781196  
C          9.953225        0.714748        3.362624  
C          9.953225       -2.020657        2.781196  
C          9.953225       -2.977176        1.718873  
C          9.953225       -3.269491       -1.062322  
C          9.953225       -2.554744       -2.300302  
